Circuit: * C:\Users\sawai\Desktop\LTC6409\LTC6409.asc

Early termination of direct N-R iteration.
Direct Newton iteration failed to find .op point.  (Use ".option noopiter" to skip.)
Starting Gmin stepping
Gmin = 10
Gmin = 1.07374
Gmin = 0.115292
Gmin = 0.0123794
Gmin = 0.00132923
Gmin = 0.000142725
Gmin = 1.5325e-005
Gmin = 1.6455e-006
Gmin = 1.76685e-007
Gmin = 1.89714e-008
Gmin = 2.03704e-009
Gmin = 2.18725e-010
Gmin = 2.34854e-011
Gmin = 2.52173e-012
Gmin = 2.70769e-013
Gmin = 0
Gmin stepping succeeded in finding the operating point.


Date: Wed Mar 30 10:14:35 2016
Total elapsed time: 0.087 seconds.

tnom = 27
temp = 27
method = modified trap
totiter = 3304
traniter = 2934
tranpoints = 1370
accept = 1272
rejected = 98
matrix size = 32
fillins = 82
solver = Normal
Thread vector: 11.8/5.2[2] 3.4/2.3[2] 1.3/0.9[2] 0.2/0.5[1]  2592/500
Matrix Compiler1: 5.88 KB object code size  0.9/0.4/[0.3]
Matrix Compiler2: off  [0.3]/0.4/0.4


